Circuit: * C:\Users\Fratta\Desktop\Hedge66\Cerbero\Moduli\Energy meter\doc\istrum_amplifier1.asc

Early termination of direct N-R iteration.
Direct Newton iteration failed to find .op point.  (Use ".option noopiter" to skip.)
Starting Gmin stepping
Gmin = 10
Gmin = 1.07374
Gmin = 0.115292
Gmin = 0.0123794
Gmin = 0.00132923
Gmin = 0.000142725
Gmin = 1.5325e-005
Gmin = 1.6455e-006
Gmin = 1.76685e-007
Gmin = 1.89714e-008
Gmin = 2.03704e-009
Gmin = 2.18725e-010
Gmin = 2.34854e-011
Gmin = 2.52173e-012
Gmin = 2.70769e-013
Gmin = 0
Gmin stepping succeeded in finding the operating point.


Date: Thu Jun 11 09:15:09 2015
Total elapsed time: 0.453 seconds.

tnom = 27
temp = 27
method = modified trap
totiter = 7159
traniter = 6813
tranpoints = 2638
accept = 2072
rejected = 566
matrix size = 47
fillins = 108
solver = Normal
Thread vector: 21.6/12.5[2] 6.9/5.2[2] 4.0/71.8[1] 0.4/90.6[1]  2592/500
Matrix Compiler1: 6,02 KB object code size  2.1/0.8/[0.6]
Matrix Compiler2: off  [0.7]/0.8/1.1


