Circuit: * C:\Users\Fratta\Desktop\Hedge66\Cerbero\Moduli\Energy meter\doc\istrum_amplifier1.asc

Early termination of direct N-R iteration.
Direct Newton iteration failed to find .op point.  (Use ".option noopiter" to skip.)
Starting Gmin stepping
Gmin = 10
Gmin = 1.07374
Gmin = 0.115292
Gmin = 0.0123794
Gmin = 0.00132923
Gmin = 0.000142725
Gmin = 1.5325e-005
Gmin = 1.6455e-006
Gmin = 1.76685e-007
Gmin = 1.89714e-008
Gmin = 2.03704e-009
Gmin = 2.18725e-010
Gmin = 2.34854e-011
Gmin = 2.52173e-012
Gmin = 2.70769e-013
Gmin = 0
Gmin stepping succeeded in finding the operating point.


Date: Thu Feb 26 17:13:38 2015
Total elapsed time: 0.158 seconds.

tnom = 27
temp = 27
method = modified trap
totiter = 2488
traniter = 2134
tranpoints = 1068
accept = 1060
rejected = 8
matrix size = 47
fillins = 84
solver = Normal
Thread vector: 31.0/16.7[2] 6.8/4.0[2] 3.3/2.1[2] 0.4/6.4[1]  2592/500
Matrix Compiler1: 5,29 KB object code size  2.1/0.7/[0.5]
Matrix Compiler2: off  [0.7]/0.8/1.1


